
**** 10/09/17 18:57:37 ******* PSpice Lite (March 2016) ******* ID# 10813 ****

 ** Profile: "SCHEMATIC1-sim2"  [ c:\users\vitor.user-pc\documents\izabela\cktseletronicos\circuitoseletronicosi\circuitos eletronico


 ****     CIRCUIT DESCRIPTION


******************************************************************************




** Creating circuit file "sim2.cir" 
** WARNING: THIS AUTOMATICALLY GENERATED FILE MAY BE OVERWRITTEN BY SUBSEQUENT SIMULATIONS

*Libraries: 
* Profile Libraries :
* Local Libraries :
.LIB "../../../circuitos eletronicos - projeto 1-PSpiceFiles/PSpiceModelApps/PSpiceModelApps_Include.lib" 
* From [PSPICE NETLIST] section of C:\Users\Vitor.user-PC\AppData\Roaming\SPB_Data\cdssetup\OrCAD_PSpice\17.2.0\PSpice.ini file:
.lib "nomd.lib" 

*Analysis directives: 
.TRAN  0 40m 500u 1m 
.OPTIONS ADVCONV
.PROBE64 V(alias(*)) I(alias(*)) W(alias(*)) D(alias(*)) NOISE(alias(*)) 
.INC "..\SCHEMATIC1.net" 



**** INCLUDING SCHEMATIC1.net ****
* source CIRCUITOS ELETRONICOS - PROJETO 1
D_D1         0 N14478 Dbreak 
D_D2         N14478 N14486 Dbreak 
D_D3         0 N14482 Dbreak 
D_D4         N14482 N14486 Dbreak 
V_V2         N24773 0  AC 0
+SIN 0 127 60 0 0 0
X_TX1         N24773 0 N14478 0 N14482 CETAPS_Model4
C_C1         0 N14486  8m  TC=0,0 
R_R1         0 N30495  2.5 TC=0,0 
X_U1         N14486 N30495 0 LM7805C
D_D6         N37062 N34338 Dbreak 
D_D8         N34528 N34338 Dbreak 
C_C2         0 N34338  470u  TC=0,0 
X_TX2         N34346 0 N37062 0 N34528 CETAPS_Model4
V_V3         N34346 0  AC 0
+SIN 0 127*sqrt(2) 60 0 0 0
--------------------------$
ERROR -- Expecting keyword STIMULUS, saw 0.

X_U3         N34338 N35335 0 LM7805C
X_U4         N34338 N35344 0 LM7805C
D_D10         N35335 N35510 Dbreak 
D_D11         N35344 N35510 Dbreak 
C_C3         0 N35335  0.1u  TC=0,0 
C_C4         0 N35344  0.1u  TC=0,0 
R_R2         0 N35510  2.5 TC=0,0 
C_C5         0 N35510  10u  TC=0,0 

**** RESUMING sim2.cir ****
.END
