**** Analysis Setup ****

**** 10/07/17 19:00:49 ******* PSpice Lite (March 2016) ******* ID# 10813 ****

 ** Profile: "SCHEMATIC1-sim2"  [ c:\users\vitor.user-pc\documents\izabela\cktseletronicos\circuitoseletronicosi\circuitos eletronico


 ****     CIRCUIT DESCRIPTION


******************************************************************************




** Creating circuit file "sim2.cir" 
** WARNING: THIS AUTOMATICALLY GENERATED FILE MAY BE OVERWRITTEN BY SUBSEQUENT SIMULATIONS

*Libraries: 
* Profile Libraries :
* Local Libraries :
.LIB "../../../circuitos eletronicos - projeto 1-PSpiceFiles/PSpiceModelApps/PSpiceModelApps_Include.lib" 
* From [PSPICE NETLIST] section of C:\Users\Vitor.user-PC\AppData\Roaming\SPB_Data\cdssetup\OrCAD_PSpice\17.2.0\PSpice.ini file:
.lib "nom.lib" 

*Analysis directives: 
.TRAN  0 1000ns 0 
.OPTIONS ADVCONV
.PROBE64 V(alias(*)) I(alias(*)) W(alias(*)) D(alias(*)) NOISE(alias(*)) 
.INC "..\SCHEMATIC1.net" 



**** INCLUDING SCHEMATIC1.net ****
* source CIRCUITOS ELETRONICOS - PROJETO 1
D_D1         0 N14478 Dbreak 
D_D2         N14478 N14486 Dbreak 
D_D3         0 N14482 Dbreak 
D_D4         N14482 N14486 Dbreak 
V_V2         N24773 0  AC 0
+SIN 0 127 60 0 0 0
X_TX1         N24773 0 N14478 0 N14482 CETAPS_Model4
C_C1         0 N14486  8m  TC=0,0 
R_R1         0 N30495  2.5 TC=0,0 
X_U1         N14486 N30495 0 LM7805C

**** RESUMING sim2.cir ****
.END

**** 10/07/17 19:00:49 ******* PSpice Lite (March 2016) ******* ID# 10813 ****

 ** Profile: "SCHEMATIC1-sim2"  [ c:\users\vitor.user-pc\documents\izabela\cktseletronicos\circuitoseletronicosi\circuitos eletronico


 ****     Diode MODEL PARAMETERS


******************************************************************************




               Dbreak          X_U1.x1.Dlim    X_U1.x1.Dz      
          IS   10.000000E-15   10.000000E-15   50.000000E-15 
          BV                                    7.11         
         IBV                                   50.000000E-09 
          RS     .1                             3            
         CJO  100.000000E-15                                 
          VJ                     .7                          


**** 10/07/17 19:00:49 ******* PSpice Lite (March 2016) ******* ID# 10813 ****

 ** Profile: "SCHEMATIC1-sim2"  [ c:\users\vitor.user-pc\documents\izabela\cktseletronicos\circuitoseletronicosi\circuitos eletronico


 ****     BJT MODEL PARAMETERS


******************************************************************************




               X_U1.x1.Npn1    
               NPN             
       LEVEL    1            
          IS   10.000000E-15 
          BF   50            
          NF    1            
          BR    1            
          NR    1            
         ISS    0            
          RE    0            
          RC    0            
         CJE    0            
         VJE     .75         
         CJC    0            
         VJC     .75         
         MJC     .33         
        XCJC    1            
         CJS    0            
         VJS     .75         
          KF    0            
          AF    1            
          CN    2.42         
           D     .87         


**** 10/07/17 19:00:49 ******* PSpice Lite (March 2016) ******* ID# 10813 ****

 ** Profile: "SCHEMATIC1-sim2"  [ c:\users\vitor.user-pc\documents\izabela\cktseletronicos\circuitoseletronicosi\circuitos eletronico


 ****     Voltage Controlled Switch MODEL PARAMETERS


******************************************************************************




               X_U1.x1.Sbg1    
         RON    1            
        ROFF    1.000000E+06 
         VON    3.7          
        VOFF    3            

