
**** 10/02/17 20:12:20 ******* PSpice Lite (March 2016) ******* ID# 10813 ****

 ** Profile: "SCHEMATIC1-sim2"  [ C:\Users\Vitor.user-PC\Documents\Izabela\cktsEletronicos\Circuitos Eletronicos - Projeto 1-PSpiceFi


 ****     CIRCUIT DESCRIPTION


******************************************************************************




** Creating circuit file "sim2.cir" 
** WARNING: THIS AUTOMATICALLY GENERATED FILE MAY BE OVERWRITTEN BY SUBSEQUENT SIMULATIONS

*Libraries: 
* Profile Libraries :
* Local Libraries :
.LIB "../../../circuitos eletronicos - projeto 1-PSpiceFiles/PSpiceModelApps/PSpiceModelApps_Include.lib" 
* From [PSPICE NETLIST] section of C:\Users\Vitor.user-PC\AppData\Roaming\SPB_Data\cdssetup\OrCAD_PSpice\17.2.0\PSpice.ini file:
.lib "nomd.lib" 

*Analysis directives: 
.TRAN  0 1000ns 0 
.OPTIONS ADVCONV
.PROBE64 V(alias(*)) I(alias(*)) W(alias(*)) D(alias(*)) NOISE(alias(*)) 
.INC "..\SCHEMATIC1.net" 



**** INCLUDING SCHEMATIC1.net ****
* source CIRCUITOS ELETRONICOS - PROJETO 1
V_V1         N14905 N14890 DC 0Vdc AC 127Vac 
X1_TX1         N14912 N14890  N14478 N14482 ST_Model
D_D1         N14503 N14478 Dbreak 
D_D2         N14478 N14486 Dbreak 
D_D3         N14503 N14482 Dbreak 
D_D4         N14482 N14486 Dbreak 
R_R1         N14503 N14486  1k TC=0,0 
R_R2         N14905 N14912  10 TC=0,0 

**** RESUMING sim2.cir ****
.END

ERROR(ORPSIM-15142): Node N14905 is floating

ERROR(ORPSIM-15142): Node N14890 is floating

ERROR(ORPSIM-15142): Node N14912 is floating

ERROR(ORPSIM-15142): Node X1_TX1.PI is floating
